%nprocshared=20
%mem=5GB
#p m062x/cc-pVTZ irc=(calcall) 

Gaussian input prepared by ASE

0 2
O                -0.4168460000       -1.0905430000       -0.1872930000
O                 1.8490790000       -0.0381910000        0.6454830000
O                 1.9488700000        0.4269830000       -0.5721320000
C                -1.6559320000       -0.4282910000        0.0761050000
C                -1.5323520000        1.0985900000        0.0519360000
H                -1.9618210000       -0.7852590000        1.0565830000
H                -2.3997190000       -0.7747170000       -0.6429240000
H                -2.1771370000        1.5437980000       -0.7032210000
H                -1.7881460000        1.5400470000        1.0130200000
H                -0.0746280000       -0.7829080000       -1.0350950000
H                 0.9877860000       -0.5334120000        0.6320960000
H                -0.5054510000        1.3846610000       -0.1771670000



