%nprocshared=20
%mem=5GB
#p m062x/cc-pVTZ opt=(calcfc,maxcycles=900) freq IOP(7/33=1,2/16=3) scf=(maxcycle=900) 

Gaussian input prepared by ASE

0 2
O                -1.5181665199       -0.3072581675        0.6728341374
C                -0.2494228844       -0.4864818139        0.0975652595
C                 0.1844521961        0.6502804803       -0.8179586676
H                 0.5145723000       -0.6156040374        0.8817104372
H                -0.2744901425       -1.4507078899       -0.4536858058
H                -0.4078206384        1.5695934360       -0.8375430734
H                 1.2550199034        0.7756842655       -1.0001177590
H                -1.5588078046        0.6204628703        0.9976363109



