%nprocshared=20
%mem=5GB
#p m062x/cc-pVTZ opt=(calcfc,maxcycles=900) freq IOP(7/33=1,2/16=3) scf=(maxcycle=900) 

Gaussian input prepared by ASE

0 2
O                -1.1782562287       -0.0839268707        1.0091903438
C                -0.2387700324       -0.5160844277        0.0587318528
C                 0.2941531201       -1.9064351561        0.3774447732
H                -0.6817415991       -0.4977555899       -0.9505674560
H                 0.6160446432        0.1920615400        0.0133535689
H                 1.1669576235       -2.2583305954       -0.1799499420
H                 0.1865516308       -2.2843994928        1.3975369944
H                -1.5840008338        0.7393834909        0.6551481800



