%nprocshared=20
%mem=5GB
#p m062x/cc-pVTZ opt=(calcfc,maxcycles=900,) freq IOP(7/33=1,2/16=3) scf=(maxcycle=900) 

Gaussian input prepared by ASE

0 2
O                -1.1028360000       -0.3769430000       -0.0486670000
C                -0.0106440000        0.5205650000        0.0329100000
C                 1.2465930000       -0.2540810000       -0.0231180000
H                -0.0375500000        1.2530410000       -0.7848680000
H                -0.0598970000        1.0984460000        0.9701380000
H                 2.1881320000        0.2464190000       -0.1827360000
H                 1.2334250000       -1.2959590000        0.2548890000
H                -1.9171180000        0.1146950000        0.0731590000



