%nprocshared=20
%mem=5GB
#p m062x/cc-pVTZ opt=(ts,calcfc,noeigentest,maxcycles=900) freq scf=(maxcycle=900) IOP(7/33=1,2/16=3) 

Gaussian input prepared by ASE

0 2
O                 1.2963720000       -1.0838280000        0.3743380000
O                -1.7156810000       -0.4041580000       -0.5337220000
O                -1.3399160000        0.1501820000        0.6922850000
C                 1.2506520000       -0.0174150000       -0.5422560000
C                 0.7451300000        1.2461520000        0.0796080000
H                 2.2760810000        0.1364520000       -0.8931410000
H                 0.6446270000       -0.2699020000       -1.4187890000
H                -0.5502690000        0.9617620000        0.4179760000
H                 0.6450850000        2.1056250000       -0.5789970000
H                 1.1569460000        1.4712460000        1.0593960000
H                 0.4041910000       -1.2038740000        0.7178510000
H                -2.4775510000        0.1287030000       -0.7916210000



