%nprocshared=20
%mem=5GB
#p m062x/cc-pVTZ Opt=(ModRedun,Loose,maxcycles=900) Int(Grid=SG1) scf=(maxcycle=900) 

Gaussian input prepared by ASE

0 2
O                -1.6222568186        0.0992885498        7.8626850294
O                -2.3717501588       -2.4516060720        6.5773571014
O                -1.2117629084       -2.8820667973        7.0263939963
C                -0.2814252569        0.2591282018        7.4876102920
C                 0.3939869210       -1.0683351867        7.1748641613
H                 0.2703634532        0.7745672631        8.3010302717
H                -0.2158911418        0.9272293995        6.5996122518
H                 1.1970110748       -0.9258462328        6.4209226872
H                 0.8488832842       -1.5064378312        8.0883414252
H                -1.9603832490        1.0056305347        8.0859976430
H                -2.7570051378       -1.9767884972        7.3566278001
H                -0.3547374908       -1.8505870319        6.7656105286

3 12 F
12 5 F
3 12 5 F

