%nprocshared=20
%mem=5GB
#p m062x/cc-pVTZ Opt=(ts,calcfc,noeigentest,ModRedun,maxcycles=900) scf=(maxcycle=900) 

Gaussian input prepared by ASE

0 2
O                -2.0004200000       -0.6088560000       -0.4951860000
O                 1.8709280000       -0.6370080000        0.3574420000
O                 1.6592610000        0.1732160000       -0.7500920000
C                -1.2128250000       -0.1297970000        0.5730800000
C                -0.3779050000        1.0578530000        0.2016290000
H                -1.8392120000        0.1224060000        1.4418720000
H                -0.5667640000       -0.9541190000        0.8758630000
H                 0.5623560000        0.5468640000       -0.6516070000
H                -0.8844150000        1.8264780000       -0.3796640000
H                 0.2360910000        1.4609330000        1.0007670000
H                -2.6039710000        0.0862960000       -0.7691880000
H                 2.4021530000       -0.0760080000        0.9363970000

1 2 F
1 4 F
1 6 F
1 7 F
1 9 F
1 10 F
1 11 F
1 12 F
2 4 F
2 6 F
2 7 F
2 9 F
2 10 F
2 11 F
2 12 F
4 6 F
4 7 F
4 9 F
4 10 F
4 11 F
4 12 F
6 7 F
6 9 F
6 10 F
6 11 F
6 12 F
7 9 F
7 10 F
7 11 F
7 12 F
9 10 F
9 11 F
9 12 F
10 11 F
10 12 F
11 12 F

