%nprocshared=20
%mem=5GB
#p m062x/cc-pVTZ opt=(ts,calcfc,noeigentest,maxcycles=900) freq scf=(maxcycle=900) IOP(7/33=1,2/16=3) 

Gaussian input prepared by ASE

0 2
O                 0.8813690000       -1.0759100000       -0.4768760000
O                -1.5868710000       -0.5472220000        0.4450190000
O                -1.5350300000        0.5071140000       -0.3688760000
C                 1.3152950000       -0.0404810000        0.4133500000
C                 0.7440930000        1.2774410000       -0.0490410000
H                 2.4078430000       -0.0020800000        0.4231620000
H                 0.9772820000       -0.2647670000        1.4307390000
H                 1.0694350000        2.0872670000        0.6028940000
H                 1.0464640000        1.4861470000       -1.0746060000
H                 1.4306020000       -1.8515860000       -0.3422790000
H                -0.9517900000       -1.1657920000        0.0314190000
H                -0.4119180000        1.2172000000       -0.0513100000



