%nprocshared=20
%mem=5GB
#p m062x/cc-pVTZ Opt=(ModRedun,Loose,maxcycles=900) Int(Grid=SG1) scf=(maxcycle=900) 

Gaussian input prepared by ASE

0 2
O                -2.0834781973        1.5063818890        0.2508469514
O                -0.5948729887       -2.5415491980        3.0614411376
O                -1.7781759548       -2.2057770967        2.5934929819
C                -1.6107336260        0.2058702699        0.0306481346
C                -0.8962189337       -0.3873423488        1.2372517163
H                -2.4878399898       -0.4125861993       -0.2657465383
H                -0.9158997408        0.1828643002       -0.8352007307
H                -1.5486566703       -1.4999262678        1.6954144746
H                -0.8394629160        0.3089710602        2.1007080446
H                 0.1178217377       -0.7664338910        0.9902339655
H                -1.5085759964        1.9109490973        0.9520025999
H                -0.4355116858       -1.8726689313        3.7740267774

5 8 F
8 3 F
5 8 3 F

