%nprocshared=20
%mem=5GB
#p m062x/cc-pVTZ opt=(ts,calcfc,noeigentest,maxcycles=900) freq scf=(maxcycle=900) IOP(7/33=1,2/16=3) 

Gaussian input prepared by ASE

0 2
O                -0.8162960000       -1.1875420000       -0.4021380000
O                 1.6128120000       -0.4407850000        0.4758010000
O                 1.4623480000        0.5396830000       -0.4120210000
C                -1.3050660000       -0.1310320000        0.4324600000
C                -0.8323990000        1.2296960000       -0.0271650000
H                -0.9231630000       -0.3484850000        1.4298850000
H                -2.3964510000       -0.1792090000        0.4751090000
H                -1.1955190000        1.4557070000       -1.0313660000
H                -1.1652060000        2.0126110000        0.6549940000
H                -0.8924860000       -0.9072920000       -1.3188980000
H                 1.0026360000       -1.1326620000        0.1417220000
H                 0.3240620000        1.2164970000       -0.0763470000



