%nprocshared=20
%mem=5GB
#p m062x/cc-pVTZ Opt=(ModRedun,Loose,maxcycles=900) Int(Grid=SG1) scf=(maxcycle=900) 

Gaussian input prepared by ASE

0 2
O                -6.1184509607        1.0624660973        6.6878674150
O                -7.7516045896        4.6603693752        4.9758351901
O                -8.3173077057        4.5181075993        6.1555004356
C                -5.7997170447        2.3450823788        7.1534383281
C                -6.9951306233        3.1499095291        7.6448904663
H                -5.0617632849        2.2701162063        7.9836451826
H                -5.2866923898        2.8712278184        6.3209209290
H                -7.7869732736        3.5933917987        6.6204290303
H                -7.6776461160        2.5573039033        8.2898607482
H                -6.6890493696        4.0734725325        8.1805597066
H                -6.6376016458        0.6206090624        7.4096703777
H                -7.0737087973        5.3673418756        5.1213959280

5 8 F
8 3 F
5 8 3 F

