%nprocshared=20
%mem=5GB
#p m062x/cc-pVTZ Opt=(ModRedun,Loose,maxcycles=900) Int(Grid=SG1) scf=(maxcycle=900) 

Gaussian input prepared by ASE

0 2
O                -3.4490618558        2.7541549774        6.7793635082
O                -2.5082638745        3.1190883791        3.2008091587
O                -1.8197233712        1.9975855517        3.2261936705
C                -3.8235277191        2.0368666381        5.6351031334
C                -2.8045329542        0.9921497480        5.2034005868
H                -3.9643013085        2.7811980065        4.8239595699
H                -4.8104620522        1.5469875487        5.7937648804
H                -2.2533954047        0.5852486858        6.0776188474
H                -3.2929698955        0.1439824606        4.6786654660
H                -3.1360534851        2.0866079421        7.4442398242
H                -1.9037410682        3.7719275296        3.6361126968
H                -2.0482248856        1.4536822458        4.4584303937

3 12 F
12 5 F
3 12 5 F

