%nprocshared=20
%mem=5GB
#p m062x/cc-pVTZ Opt=(CalcFC,ModRedun) 

Gaussian input prepared by ASE

0 2
O                -1.1028840000       -0.3769370000       -0.0489610000
C                -0.0106380000        0.5205230000        0.0331230000
C                 1.2465850000       -0.2541030000       -0.0232260000
H                -0.0374030000        1.2533690000       -0.7843060000
H                -0.0599040000        1.0980020000        0.9706060000
H                 2.1880230000        0.2464230000       -0.1833680000
H                 1.2337140000       -1.2956140000        0.2561730000
H                -1.9170400000        0.1147940000        0.0732030000

B 1 2
B 1 8
B 2 4
B 2 3
B 2 5
B 3 6
B 3 7
D 8 1 2 5 S 36 10.0
D 5 2 3 7 F

