%nprocshared=20
%mem=5GB
#p m062x/cc-pVTZ opt=(calcfc,maxcycles=900) freq IOP(7/33=1,2/16=3) scf=(maxcycle=900) 

Gaussian input prepared by ASE

0 1
O                 1.5387506730        0.4182394643       -0.2078905491
C                 0.5328134336       -0.4689961293        0.1021744146
C                -0.7982251100        0.2028635926        0.3886192598
H                 0.3964393107       -1.1870427360       -0.7451964306
H                 0.8405571412       -1.0809308262        0.9790898650
H                -1.2888230316        0.5186427325       -0.5512080829
H                -1.4779659033       -0.4795902006        0.9116842022
H                -0.6642816126        1.1102129575        1.0276147682
H                 1.1672040355        1.3272739811       -0.1874667038



