%nprocshared=20
%mem=5GB
#p m062x/cc-pVTZ Opt=(CalcFC,ModRedun) 

Gaussian input prepared by ASE

0 1
O                 1.5619275258        0.4295713388       -0.0986619869
C                 0.4882143994       -0.4734205982        0.1053737498
C                 1.0583818304       -1.8732292525        0.0965006707
H                -0.0069797054       -0.2762726822        1.0617987369
H                -0.2610640460       -0.3690276537       -0.6861676140
H                 1.7975688704       -1.9813232797        0.8889010841
H                 0.2708965257       -2.6105717022        0.2485855143
H                 1.5459165339       -2.0727329205       -0.8566259025
H                 1.2215916779        1.3260567621       -0.0955556568

B 1 9
B 1 2
B 2 3
B 2 4
B 2 5
B 3 6
B 3 7
B 3 8
D 5 2 3 8 S 36 10.0
D 9 1 2 5 F

